results/PD39_V8_LINE_REPAIR_HOLDOUT_SUMMARY.csv
solution,line,gamma,conditions,equilibrium_success,robust_cases,robust_coverage,worst_alpha,median_alpha,worst_margin,voltage_feasible,load_served
line_1,1,1.091552734375,24,24,13,0.5416666666666666,45.487154534393326,-0.06355032349731782,-45.487154534393326,false,true
line_2,2,1.137451171875,24,24,13,0.5416666666666666,0.7748898069087686,-0.06580849348078736,-0.7748898069087686,true,true
line_27,27,1.193603515625,24,24,13,0.5416666666666666,0.7582436274454052,-0.07488333174764453,-0.7582436274454052,true,true
line_46,46,1.21142578125,24,24,12,0.5,4.536448156821403,-0.045159590701559955,-4.536448156821403,false,true
